Circuit: * C:\Users\martinmc\LTSPICE_SIM\soft_power_on.asc

Direct Newton iteration for .op point succeeded.
Heightened Def Con from 0.1 to 0.1

Date: Sat Aug 31 14:28:29 2019
Total elapsed time: 0.218 seconds.

tnom = 27
temp = 27
method = modified trap
totiter = 12541
traniter = 12527
tranpoints = 4042
accept = 3174
rejected = 869
matrix size = 31
fillins = 30
solver = Normal
Matrix Compiler1: 4.08 KB object code size  1.1/0.4/[0.3]
Matrix Compiler2: off  [0.3]/0.4/0.5

